<?xml version="1.0" encoding="UTF-8"?>

<!-- generated on 2025-07-17 22:33:31 by Eclipse SUMO netedit Version 1.22.0
<neteditConfiguration xmlns:xsi="http://www.w3.org/2001/XMLSchema-instance" xsi:noNamespaceSchemaLocation="http://sumo.dlr.de/xsd/neteditConfiguration.xsd">

    <input>
        <sumo-net-file value="C:\Users\yilma\Desktop\SumoNeu\validated_net.net.xml"/>
    </input>

    <output>
        <output-file value="C:\Users\yilma\Desktop\SumoNeu\validated_net.net.xml"/>
    </output>

    <processing>
        <geometry.min-radius.fix.railways value="false"/>
        <geometry.max-grade.fix value="false"/>
        <offset.disable-normalization value="true"/>
        <lefthand value="0"/>
    </processing>

    <junctions>
        <no-internal-links value="false"/>
        <no-turnarounds value="true"/>
        <junctions.corner-detail value="0"/>
        <junctions.limit-turn-speed value="-1.00"/>
        <rectangular-lane-cut value="0"/>
        <check-lane-foes.all value="1"/>
    </junctions>

    <pedestrian>
        <walkingareas value="1"/>
    </pedestrian>

</neteditConfiguration>
-->

<net version="1.20" walkingareas="true" checkLaneFoesAll="1" xmlns:xsi="http://www.w3.org/2001/XMLSchema-instance" xsi:noNamespaceSchemaLocation="http://sumo.dlr.de/xsd/net_file.xsd">

    <location netOffset="0.00,0.00" convBoundary="-200.00,-200.00,200.00,200.00" origBoundary="-10000000000.00,-10000000000.00,10000000000.00,10000000000.00" projParameter="!"/>

    <edge id=":J0_0" function="internal">
        <lane id=":J0_0_0" index="0" disallow="pedestrian" speed="13.89" length="7.27" shape="-8.00,15.10 -8.44,11.99 -9.77,9.78 -11.10,8.98"/>
    </edge>
    <edge id=":J0_1" function="internal">
        <lane id=":J0_1_0" index="0" disallow="pedestrian" speed="13.89" length="30.20" shape="-8.00,15.10 -8.00,-15.10"/>
        <lane id=":J0_1_1" index="1" disallow="pedestrian" speed="13.89" length="30.20" shape="-4.80,15.10 -4.80,-15.10"/>
    </edge>
    <edge id=":J0_3" function="internal">
        <lane id=":J0_3_0" index="0" disallow="pedestrian" speed="13.89" length="22.89" shape="-1.60,15.10 -0.56,7.79 2.57,2.58 7.79,-0.56 11.10,-1.03"/>
    </edge>
    <edge id=":J0_16" function="internal">
        <lane id=":J0_16_0" index="0" disallow="pedestrian" speed="13.89" length="4.18" shape="-11.10,8.98 -11.99,8.44 -15.10,8.00"/>
    </edge>
    <edge id=":J0_17" function="internal">
        <lane id=":J0_17_0" index="0" disallow="pedestrian" speed="13.89" length="4.04" shape="11.10,-1.03 15.10,-1.60"/>
    </edge>
    <edge id=":J0_4" function="internal">
        <lane id=":J0_4_0" index="0" disallow="pedestrian" speed="13.89" length="7.27" shape="15.10,8.00 11.99,8.44 9.78,9.77 8.98,11.10"/>
    </edge>
    <edge id=":J0_5" function="internal">
        <lane id=":J0_5_0" index="0" disallow="pedestrian" speed="13.89" length="30.20" shape="15.10,8.00 -15.10,8.00"/>
        <lane id=":J0_5_1" index="1" disallow="pedestrian" speed="13.89" length="30.20" shape="15.10,4.80 -15.10,4.80"/>
    </edge>
    <edge id=":J0_7" function="internal">
        <lane id=":J0_7_0" index="0" disallow="pedestrian" speed="13.89" length="22.89" shape="15.10,1.60 7.79,0.56 2.58,-2.57 -0.56,-7.79 -1.03,-11.10"/>
    </edge>
    <edge id=":J0_18" function="internal">
        <lane id=":J0_18_0" index="0" disallow="pedestrian" speed="13.89" length="4.18" shape="8.98,11.10 8.44,11.99 8.00,15.10"/>
    </edge>
    <edge id=":J0_19" function="internal">
        <lane id=":J0_19_0" index="0" disallow="pedestrian" speed="13.89" length="4.04" shape="-1.03,-11.10 -1.60,-15.10"/>
    </edge>
    <edge id=":J0_8" function="internal">
        <lane id=":J0_8_0" index="0" disallow="pedestrian" speed="13.89" length="7.27" shape="8.00,-15.10 8.44,-11.99 9.77,-9.78 11.10,-8.98"/>
    </edge>
    <edge id=":J0_9" function="internal">
        <lane id=":J0_9_0" index="0" disallow="pedestrian" speed="13.89" length="30.20" shape="8.00,-15.10 8.00,15.10"/>
        <lane id=":J0_9_1" index="1" disallow="pedestrian" speed="13.89" length="30.20" shape="4.80,-15.10 4.80,15.10"/>
    </edge>
    <edge id=":J0_11" function="internal">
        <lane id=":J0_11_0" index="0" disallow="pedestrian" speed="13.89" length="22.89" shape="1.60,-15.10 0.56,-7.79 -2.57,-2.58 -7.79,0.56 -11.10,1.03"/>
    </edge>
    <edge id=":J0_20" function="internal">
        <lane id=":J0_20_0" index="0" disallow="pedestrian" speed="13.89" length="4.18" shape="11.10,-8.98 11.99,-8.44 15.10,-8.00"/>
    </edge>
    <edge id=":J0_21" function="internal">
        <lane id=":J0_21_0" index="0" disallow="pedestrian" speed="13.89" length="4.04" shape="-11.10,1.03 -15.10,1.60"/>
    </edge>
    <edge id=":J0_12" function="internal">
        <lane id=":J0_12_0" index="0" disallow="pedestrian" speed="13.89" length="7.27" shape="-15.10,-8.00 -11.99,-8.44 -9.78,-9.77 -8.98,-11.10"/>
    </edge>
    <edge id=":J0_13" function="internal">
        <lane id=":J0_13_0" index="0" disallow="pedestrian" speed="13.89" length="30.20" shape="-15.10,-8.00 15.10,-8.00"/>
        <lane id=":J0_13_1" index="1" disallow="pedestrian" speed="13.89" length="30.20" shape="-15.10,-4.80 15.10,-4.80"/>
    </edge>
    <edge id=":J0_15" function="internal">
        <lane id=":J0_15_0" index="0" disallow="pedestrian" speed="13.89" length="22.89" shape="-15.10,-1.60 -7.79,-0.56 -2.58,2.57 0.56,7.79 1.03,11.10"/>
    </edge>
    <edge id=":J0_22" function="internal">
        <lane id=":J0_22_0" index="0" disallow="pedestrian" speed="13.89" length="4.18" shape="-8.98,-11.10 -8.44,-11.99 -8.00,-15.10"/>
    </edge>
    <edge id=":J0_23" function="internal">
        <lane id=":J0_23_0" index="0" disallow="pedestrian" speed="13.89" length="4.04" shape="1.03,11.10 1.60,15.10"/>
    </edge>
    <edge id=":J0_c0" function="crossing" crossingEdges="E0 -E0">
        <lane id=":J0_c0_0" index="0" allow="pedestrian" speed="2.78" length="19.20" width="4.00" shape="9.60,13.10 -9.60,13.10" outlineShape="9.70,15.10 -9.70,15.10 -9.60,11.10 9.60,11.10"/>
    </edge>
    <edge id=":J0_c1" function="crossing" crossingEdges="E3 -E3">
        <lane id=":J0_c1_0" index="0" allow="pedestrian" speed="2.78" length="19.20" width="4.00" shape="13.10,-9.60 13.10,9.60" outlineShape="15.10,-9.70 15.10,9.70 11.10,9.60 11.10,-9.60"/>
    </edge>
    <edge id=":J0_c2" function="crossing" crossingEdges="E2 -E2">
        <lane id=":J0_c2_0" index="0" allow="pedestrian" speed="2.78" length="19.20" width="4.00" shape="-9.60,-13.10 9.60,-13.10" outlineShape="-9.70,-15.10 9.70,-15.10 9.60,-11.10 -9.60,-11.10"/>
    </edge>
    <edge id=":J0_c3" function="crossing" crossingEdges="E1 -E1">
        <lane id=":J0_c3_0" index="0" allow="pedestrian" speed="2.78" length="19.20" width="4.00" shape="-13.10,9.60 -13.10,-9.60" outlineShape="-15.10,9.70 -15.10,-9.70 -11.10,-9.60 -11.10,9.60"/>
    </edge>
    <edge id=":J0_w0" function="walkingarea">
        <lane id=":J0_w0_0" index="0" allow="pedestrian" speed="2.78" length="4.49" width="4.00" shape="-11.10,9.60 -15.10,9.60 -15.10,13.60 -13.60,15.10 -9.60,15.10 -9.60,11.10"/>
    </edge>
    <edge id=":J0_w1" function="walkingarea">
        <lane id=":J0_w1_0" index="0" allow="pedestrian" speed="2.78" length="4.49" width="4.00" shape="9.60,11.10 9.60,15.10 13.60,15.10 15.10,13.60 15.10,9.60 11.10,9.60"/>
    </edge>
    <edge id=":J0_w2" function="walkingarea">
        <lane id=":J0_w2_0" index="0" allow="pedestrian" speed="2.78" length="4.49" width="4.00" shape="11.10,-9.60 15.10,-9.60 15.10,-13.60 13.60,-15.10 9.60,-15.10 9.60,-11.10"/>
    </edge>
    <edge id=":J0_w3" function="walkingarea">
        <lane id=":J0_w3_0" index="0" allow="pedestrian" speed="2.78" length="4.49" width="4.00" shape="-9.60,-11.10 -9.60,-15.10 -13.60,-15.10 -15.10,-13.60 -15.10,-9.60 -11.10,-9.60"/>
    </edge>
    <edge id=":J1_w0" function="walkingarea">
        <lane id=":J1_w0_0" index="0" allow="pedestrian" speed="2.78" length="23.20" width="4.00" shape="-9.60,200.00 -13.60,200.00 13.60,200.00 9.60,200.00"/>
    </edge>
    <edge id=":J2_w0" function="walkingarea">
        <lane id=":J2_w0_0" index="0" allow="pedestrian" speed="2.78" length="23.20" width="4.00" shape="-200.00,-9.60 -200.00,-13.60 -200.00,13.60 -200.00,9.60"/>
    </edge>
    <edge id=":J3_w0" function="walkingarea">
        <lane id=":J3_w0_0" index="0" allow="pedestrian" speed="2.78" length="23.20" width="4.00" shape="9.60,-200.00 13.60,-200.00 -13.60,-200.00 -9.60,-200.00"/>
    </edge>
    <edge id=":J4_w0" function="walkingarea">
        <lane id=":J4_w0_0" index="0" allow="pedestrian" speed="2.78" length="23.20" width="4.00" shape="200.00,9.60 200.00,13.60 200.00,-13.60 200.00,-9.60"/>
    </edge>

    <edge id="-E0" from="J1" to="J0" priority="-1">
        <lane id="-E0_0" index="0" allow="pedestrian" speed="1.39" length="184.90" width="4.00" shape="-11.60,200.00 -11.60,15.10"/>
        <lane id="-E0_1" index="1" disallow="pedestrian" speed="13.89" length="184.90" shape="-8.00,200.00 -8.00,15.10"/>
        <lane id="-E0_2" index="2" disallow="pedestrian" speed="13.89" length="184.90" shape="-4.80,200.00 -4.80,15.10"/>
        <lane id="-E0_3" index="3" disallow="pedestrian" speed="13.89" length="184.90" shape="-1.60,200.00 -1.60,15.10"/>
    </edge>
    <edge id="-E1" from="J2" to="J0" priority="-1">
        <lane id="-E1_0" index="0" allow="pedestrian" speed="1.39" length="184.90" width="4.00" shape="-200.00,-11.60 -15.10,-11.60"/>
        <lane id="-E1_1" index="1" disallow="pedestrian" speed="13.89" length="184.90" shape="-200.00,-8.00 -15.10,-8.00"/>
        <lane id="-E1_2" index="2" disallow="pedestrian" speed="13.89" length="184.90" shape="-200.00,-4.80 -15.10,-4.80"/>
        <lane id="-E1_3" index="3" disallow="pedestrian" speed="13.89" length="184.90" shape="-200.00,-1.60 -15.10,-1.60"/>
    </edge>
    <edge id="-E2" from="J3" to="J0" priority="-1">
        <lane id="-E2_0" index="0" allow="pedestrian" speed="1.39" length="184.90" width="4.00" shape="11.60,-200.00 11.60,-15.10"/>
        <lane id="-E2_1" index="1" disallow="pedestrian" speed="13.89" length="184.90" shape="8.00,-200.00 8.00,-15.10"/>
        <lane id="-E2_2" index="2" disallow="pedestrian" speed="13.89" length="184.90" shape="4.80,-200.00 4.80,-15.10"/>
        <lane id="-E2_3" index="3" disallow="pedestrian" speed="13.89" length="184.90" shape="1.60,-200.00 1.60,-15.10"/>
    </edge>
    <edge id="-E3" from="J4" to="J0" priority="-1">
        <lane id="-E3_0" index="0" allow="pedestrian" speed="1.39" length="184.90" width="4.00" shape="200.00,11.60 15.10,11.60"/>
        <lane id="-E3_1" index="1" disallow="pedestrian" speed="13.89" length="184.90" shape="200.00,8.00 15.10,8.00"/>
        <lane id="-E3_2" index="2" disallow="pedestrian" speed="13.89" length="184.90" shape="200.00,4.80 15.10,4.80"/>
        <lane id="-E3_3" index="3" disallow="pedestrian" speed="13.89" length="184.90" shape="200.00,1.60 15.10,1.60"/>
    </edge>
    <edge id="E0" from="J0" to="J1" priority="-1">
        <lane id="E0_0" index="0" allow="pedestrian" speed="1.39" length="184.90" width="4.00" shape="11.60,15.10 11.60,200.00"/>
        <lane id="E0_1" index="1" disallow="pedestrian" speed="13.89" length="184.90" shape="8.00,15.10 8.00,200.00"/>
        <lane id="E0_2" index="2" disallow="pedestrian" speed="13.89" length="184.90" shape="4.80,15.10 4.80,200.00"/>
        <lane id="E0_3" index="3" disallow="pedestrian" speed="13.89" length="184.90" shape="1.60,15.10 1.60,200.00"/>
    </edge>
    <edge id="E1" from="J0" to="J2" priority="-1">
        <lane id="E1_0" index="0" allow="pedestrian" speed="1.39" length="184.90" width="4.00" shape="-15.10,11.60 -200.00,11.60"/>
        <lane id="E1_1" index="1" disallow="pedestrian" speed="13.89" length="184.90" shape="-15.10,8.00 -200.00,8.00"/>
        <lane id="E1_2" index="2" disallow="pedestrian" speed="13.89" length="184.90" shape="-15.10,4.80 -200.00,4.80"/>
        <lane id="E1_3" index="3" disallow="pedestrian" speed="13.89" length="184.90" shape="-15.10,1.60 -200.00,1.60"/>
    </edge>
    <edge id="E2" from="J0" to="J3" priority="-1">
        <lane id="E2_0" index="0" allow="pedestrian" speed="1.39" length="184.90" width="4.00" shape="-11.60,-15.10 -11.60,-200.00"/>
        <lane id="E2_1" index="1" disallow="pedestrian" speed="13.89" length="184.90" shape="-8.00,-15.10 -8.00,-200.00"/>
        <lane id="E2_2" index="2" disallow="pedestrian" speed="13.89" length="184.90" shape="-4.80,-15.10 -4.80,-200.00"/>
        <lane id="E2_3" index="3" disallow="pedestrian" speed="13.89" length="184.90" shape="-1.60,-15.10 -1.60,-200.00"/>
    </edge>
    <edge id="E3" from="J0" to="J4" priority="-1">
        <lane id="E3_0" index="0" allow="pedestrian" speed="1.39" length="184.90" width="4.00" shape="15.10,-11.60 200.00,-11.60"/>
        <lane id="E3_1" index="1" disallow="pedestrian" speed="13.89" length="184.90" shape="15.10,-8.00 200.00,-8.00"/>
        <lane id="E3_2" index="2" disallow="pedestrian" speed="13.89" length="184.90" shape="15.10,-4.80 200.00,-4.80"/>
        <lane id="E3_3" index="3" disallow="pedestrian" speed="13.89" length="184.90" shape="15.10,-1.60 200.00,-1.60"/>
    </edge>

    <tlLogic id="J0" type="static" programID="rl_controlled" offset="0">
        <phase duration="1"  state="uuurrrrruuurrrrrurur" name="NS_REDYellow"/>
        <phase duration="33" state="gGGrrrrrgGGrrrrrGrGr" name="NS_Through+Right"/>
        <phase duration="3"  state="gGGrrrrrgGGrrrrryryr" name="NS_Through+RightNoPEDYELLOW"/>
        <phase duration="3"  state="gGGrrrrrgGGrrrrrurur" name="NS_Through+RightNoPEDREDYELLOW"/>
        <phase duration="8"  state="gGGrrrrrgGGrrrrrrrrr" name="NS_Through+RightNoPED"/>
        <phase duration="3"  state="yyyrrrrryyyrrrrrrrrr" name="NS_YellowNOPED"/>
        <phase duration="3"  state="yyyrrrrryyyrrrrryryr" name="NS_Yellow"/>
        <phase duration="1"  state="rrrruuurrrrruuurruru" name="EW_REDYellow"/>
        <phase duration="33" state="rrrrgGGrrrrrgGGrrGrG" name="EW_Through+Right"/>
        <phase duration="3"  state="rrrrgGGrrrrrgGGrryry" name="EW_Through+RightNOPEDYELLOW"/>
        <phase duration="3"  state="rrrrgGGrrrrrgGGrruru" name="EW_Through+RightNOPEDREDYELLOW"/>
        <phase duration="8"  state="rrrrgGGrrrrrgGGrrrrr" name="EW_Through+RightNOPED"/>
        <phase duration="3"  state="rrrryyyrrrrryyyrrrrr" name="EW_YellowNOPED"/>
        <phase duration="3"  state="rrrryyyrrrrryyyrryry" name="EW_Yellow"/>
        <phase duration="1"  state="rrrurrrrrrrurrrrrrrr" name="NS_Left_REDYellow"/>
        <phase duration="15" state="rrrGrrrrrrrGrrrrrrrr" name="NS_Left"/>
        <phase duration="3"  state="rrryrrrrrrryrrrrrrrr" name="NS_Left_Yellow"/>
        <phase duration="1"  state="rrrrrrrurrrrrrrurrrr" name="EW_Left_REDYellow"/>
        <phase duration="15" state="rrrrrrrGrrrrrrrGrrrr" name="EW_Left"/>
        <phase duration="3"  state="rrrrrrryrrrrrrryrrrr" name="EW_Left_Yellow"/>
    </tlLogic>

    <junction id="J0" type="traffic_light" x="0.00" y="0.00" incLanes="-E0_0 -E0_1 -E0_2 -E0_3 -E3_0 -E3_1 -E3_2 -E3_3 -E2_0 -E2_1 -E2_2 -E2_3 -E1_0 -E1_1 -E1_2 -E1_3 :J0_w1_0 :J0_w2_0 :J0_w3_0 :J0_w0_0" intLanes=":J0_16_0 :J0_1_0 :J0_1_1 :J0_17_0 :J0_18_0 :J0_5_0 :J0_5_1 :J0_19_0 :J0_20_0 :J0_9_0 :J0_9_1 :J0_21_0 :J0_22_0 :J0_13_0 :J0_13_1 :J0_23_0 :J0_c0_0 :J0_c1_0 :J0_c2_0 :J0_c3_0" shape="-13.60,15.10 13.60,15.10 15.10,13.60 15.10,-13.60 13.60,-15.10 -13.60,-15.10 -15.10,-13.60 -15.10,13.60">
        <request index="0"  response="10010000000000000000" foes="10010000000000100000" cont="1"/>
        <request index="1"  response="01011001100000000000" foes="01011111100001100000" cont="0"/>
        <request index="2"  response="01011000100000000000" foes="01011110100001100000" cont="0"/>
        <request index="3"  response="00111000011010000000" foes="00111000011011100000" cont="1"/>
        <request index="4"  response="00110000001000000000" foes="00110000001000000000" cont="1"/>
        <request index="5"  response="10101000011000001111" foes="10101000011000001111" cont="0"/>
        <request index="6"  response="10101000011000001110" foes="10101000011000001110" cont="0"/>
        <request index="7"  response="01100110111000001000" foes="01100110111000001000" cont="1"/>
        <request index="8"  response="01100000000000000000" foes="01100010000000000000" cont="1"/>
        <request index="9"  response="01010000000010011000" foes="01010110000011111000" cont="0"/>
        <request index="10" response="01010000000010001000" foes="01010110000011101000" cont="0"/>
        <request index="11" response="11001000000010000110" foes="11001110000010000110" cont="1"/>
        <request index="12" response="11000000000000000010" foes="11000000000000000010" cont="1"/>
        <request index="13" response="10100000111110000110" foes="10100000111110000110" cont="0"/>
        <request index="14" response="10100000111010000110" foes="10100000111010000110" cont="0"/>
        <request index="15" response="10010000100001101110" foes="10010000100001101110" cont="1"/>
        <request index="16" response="00000000000000000000" foes="00001000011000011111" cont="0"/>
        <request index="17" response="00000000000000000000" foes="00000110000111111000" cont="0"/>
        <request index="18" response="00000000000000000000" foes="00000001111110000110" cont="0"/>
        <request index="19" response="00000000000000000000" foes="00001111100001100001" cont="0"/>
    </junction>
    <junction id="J1" type="dead_end" x="0.00" y="200.00" incLanes="E0_0 E0_1 E0_2 E0_3" intLanes="" shape="0.00,200.00 13.60,200.00 0.00,200.00"/>
    <junction id="J2" type="dead_end" x="-200.00" y="0.00" incLanes="E1_0 E1_1 E1_2 E1_3" intLanes="" shape="-200.00,0.00 -200.00,13.60 -200.00,0.00"/>
    <junction id="J3" type="dead_end" x="0.00" y="-200.00" incLanes="E2_0 E2_1 E2_2 E2_3" intLanes="" shape="0.00,-200.00 -13.60,-200.00 0.00,-200.00"/>
    <junction id="J4" type="dead_end" x="200.00" y="0.00" incLanes="E3_0 E3_1 E3_2 E3_3" intLanes="" shape="200.00,0.00 200.00,-13.60 200.00,0.00"/>

    <junction id=":J0_16_0" type="internal" x="-11.10" y="8.98" incLanes=":J0_0_0" intLanes=":J0_5_0 :J0_5_1 :J0_11_0 :J0_c0_0 :J0_c3_0"/>
    <junction id=":J0_17_0" type="internal" x="11.10" y="-1.03" incLanes=":J0_3_0" intLanes=":J0_5_0 :J0_5_1 :J0_7_0 :J0_8_0 :J0_9_0 :J0_9_1 :J0_13_0 :J0_13_1 :J0_15_0 :J0_c0_0 :J0_c1_0"/>
    <junction id=":J0_18_0" type="internal" x="8.98" y="11.10" incLanes=":J0_4_0" intLanes=":J0_9_0 :J0_9_1 :J0_15_0 :J0_c0_0 :J0_c1_0"/>
    <junction id=":J0_19_0" type="internal" x="-1.03" y="-11.10" incLanes=":J0_7_0" intLanes=":J0_1_0 :J0_1_1 :J0_3_0 :J0_9_0 :J0_9_1 :J0_11_0 :J0_12_0 :J0_13_0 :J0_13_1 :J0_c1_0 :J0_c2_0"/>
    <junction id=":J0_20_0" type="internal" x="11.10" y="-8.98" incLanes=":J0_8_0" intLanes=":J0_3_0 :J0_13_0 :J0_13_1 :J0_c1_0 :J0_c2_0"/>
    <junction id=":J0_21_0" type="internal" x="-11.10" y="1.03" incLanes=":J0_11_0" intLanes=":J0_0_0 :J0_1_0 :J0_1_1 :J0_5_0 :J0_5_1 :J0_7_0 :J0_13_0 :J0_13_1 :J0_15_0 :J0_c2_0 :J0_c3_0"/>
    <junction id=":J0_22_0" type="internal" x="-8.98" y="-11.10" incLanes=":J0_12_0" intLanes=":J0_1_0 :J0_1_1 :J0_7_0 :J0_c2_0 :J0_c3_0"/>
    <junction id=":J0_23_0" type="internal" x="1.03" y="11.10" incLanes=":J0_15_0" intLanes=":J0_1_0 :J0_1_1 :J0_3_0 :J0_4_0 :J0_5_0 :J0_5_1 :J0_9_0 :J0_9_1 :J0_11_0 :J0_c0_0 :J0_c3_0"/>

    <connection from="-E0" to="E1" fromLane="1" toLane="1" via=":J0_0_0" tl="J0" linkIndex="0" dir="r" state="o"/>
    <connection from="-E0" to="E2" fromLane="1" toLane="1" via=":J0_1_0" tl="J0" linkIndex="1" dir="s" state="o"/>
    <connection from="-E0" to="E2" fromLane="2" toLane="2" via=":J0_1_1" tl="J0" linkIndex="2" dir="s" state="o"/>
    <connection from="-E0" to="E3" fromLane="3" toLane="3" via=":J0_3_0" tl="J0" linkIndex="3" dir="l" state="o"/>
    <connection from="-E1" to="E2" fromLane="1" toLane="1" via=":J0_12_0" tl="J0" linkIndex="12" dir="r" state="o"/>
    <connection from="-E1" to="E3" fromLane="1" toLane="1" via=":J0_13_0" tl="J0" linkIndex="13" dir="s" state="o"/>
    <connection from="-E1" to="E3" fromLane="2" toLane="2" via=":J0_13_1" tl="J0" linkIndex="14" dir="s" state="o"/>
    <connection from="-E1" to="E0" fromLane="3" toLane="3" via=":J0_15_0" tl="J0" linkIndex="15" dir="l" state="o"/>
    <connection from="-E2" to="E3" fromLane="1" toLane="1" via=":J0_8_0" tl="J0" linkIndex="8" dir="r" state="o"/>
    <connection from="-E2" to="E0" fromLane="1" toLane="1" via=":J0_9_0" tl="J0" linkIndex="9" dir="s" state="o"/>
    <connection from="-E2" to="E0" fromLane="2" toLane="2" via=":J0_9_1" tl="J0" linkIndex="10" dir="s" state="o"/>
    <connection from="-E2" to="E1" fromLane="3" toLane="3" via=":J0_11_0" tl="J0" linkIndex="11" dir="l" state="o"/>
    <connection from="-E3" to="E0" fromLane="1" toLane="1" via=":J0_4_0" tl="J0" linkIndex="4" dir="r" state="o"/>
    <connection from="-E3" to="E1" fromLane="1" toLane="1" via=":J0_5_0" tl="J0" linkIndex="5" dir="s" state="o"/>
    <connection from="-E3" to="E1" fromLane="2" toLane="2" via=":J0_5_1" tl="J0" linkIndex="6" dir="s" state="o"/>
    <connection from="-E3" to="E2" fromLane="3" toLane="3" via=":J0_7_0" tl="J0" linkIndex="7" dir="l" state="o"/>

    <connection from=":J0_0" to="E1" fromLane="0" toLane="1" via=":J0_16_0" dir="r" state="m"/>
    <connection from=":J0_16" to="E1" fromLane="0" toLane="1" dir="r" state="m"/>
    <connection from=":J0_1" to="E2" fromLane="0" toLane="1" dir="s" state="M"/>
    <connection from=":J0_1" to="E2" fromLane="1" toLane="2" dir="s" state="M"/>
    <connection from=":J0_3" to="E3" fromLane="0" toLane="3" via=":J0_17_0" dir="l" state="m"/>
    <connection from=":J0_17" to="E3" fromLane="0" toLane="3" dir="l" state="m"/>
    <connection from=":J0_4" to="E0" fromLane="0" toLane="1" via=":J0_18_0" dir="r" state="m"/>
    <connection from=":J0_18" to="E0" fromLane="0" toLane="1" dir="r" state="m"/>
    <connection from=":J0_5" to="E1" fromLane="0" toLane="1" dir="s" state="M"/>
    <connection from=":J0_5" to="E1" fromLane="1" toLane="2" dir="s" state="M"/>
    <connection from=":J0_7" to="E2" fromLane="0" toLane="3" via=":J0_19_0" dir="l" state="m"/>
    <connection from=":J0_19" to="E2" fromLane="0" toLane="3" dir="l" state="m"/>
    <connection from=":J0_8" to="E3" fromLane="0" toLane="1" via=":J0_20_0" dir="r" state="m"/>
    <connection from=":J0_20" to="E3" fromLane="0" toLane="1" dir="r" state="m"/>
    <connection from=":J0_9" to="E0" fromLane="0" toLane="1" dir="s" state="M"/>
    <connection from=":J0_9" to="E0" fromLane="1" toLane="2" dir="s" state="M"/>
    <connection from=":J0_11" to="E1" fromLane="0" toLane="3" via=":J0_21_0" dir="l" state="m"/>
    <connection from=":J0_21" to="E1" fromLane="0" toLane="3" dir="l" state="m"/>
    <connection from=":J0_12" to="E2" fromLane="0" toLane="1" via=":J0_22_0" dir="r" state="m"/>
    <connection from=":J0_22" to="E2" fromLane="0" toLane="1" dir="r" state="m"/>
    <connection from=":J0_13" to="E3" fromLane="0" toLane="1" dir="s" state="M"/>
    <connection from=":J0_13" to="E3" fromLane="1" toLane="2" dir="s" state="M"/>
    <connection from=":J0_15" to="E0" fromLane="0" toLane="3" via=":J0_23_0" dir="l" state="m"/>
    <connection from=":J0_23" to="E0" fromLane="0" toLane="3" dir="l" state="m"/>

    <connection from=":J0_c0" to=":J0_w0" fromLane="0" toLane="0" dir="s" state="M"/>
    <connection from=":J0_c1" to=":J0_w1" fromLane="0" toLane="0" dir="s" state="M"/>
    <connection from=":J0_c2" to=":J0_w2" fromLane="0" toLane="0" dir="s" state="M"/>
    <connection from=":J0_c3" to=":J0_w3" fromLane="0" toLane="0" dir="s" state="M"/>
    <connection from=":J0_w0" to=":J0_c3" fromLane="0" toLane="0" tl="J0" linkIndex="16" dir="s" state="M"/>
    <connection from=":J0_w0" to="E1" fromLane="0" toLane="0" dir="s" state="M"/>
    <connection from="-E0" to=":J0_w0" fromLane="0" toLane="0" dir="s" state="M"/>
    <connection from=":J0_w1" to=":J0_c0" fromLane="0" toLane="0" tl="J0" linkIndex="17" dir="s" state="M"/>
    <connection from=":J0_w1" to="E0" fromLane="0" toLane="0" dir="s" state="M"/>
    <connection from="-E3" to=":J0_w1" fromLane="0" toLane="0" dir="s" state="M"/>
    <connection from=":J0_w2" to=":J0_c1" fromLane="0" toLane="0" tl="J0" linkIndex="18" dir="s" state="M"/>
    <connection from=":J0_w2" to="E3" fromLane="0" toLane="0" dir="s" state="M"/>
    <connection from="-E2" to=":J0_w2" fromLane="0" toLane="0" dir="s" state="M"/>
    <connection from=":J0_w3" to=":J0_c2" fromLane="0" toLane="0" tl="J0" linkIndex="19" dir="s" state="M"/>
    <connection from=":J0_w3" to="E2" fromLane="0" toLane="0" dir="s" state="M"/>
    <connection from="-E1" to=":J0_w3" fromLane="0" toLane="0" dir="s" state="M"/>
    <connection from=":J1_w0" to="-E0" fromLane="0" toLane="0" dir="s" state="M"/>
    <connection from="E0" to=":J1_w0" fromLane="0" toLane="0" dir="s" state="M"/>
    <connection from=":J2_w0" to="-E1" fromLane="0" toLane="0" dir="s" state="M"/>
    <connection from="E1" to=":J2_w0" fromLane="0" toLane="0" dir="s" state="M"/>
    <connection from=":J3_w0" to="-E2" fromLane="0" toLane="0" dir="s" state="M"/>
    <connection from="E2" to=":J3_w0" fromLane="0" toLane="0" dir="s" state="M"/>
    <connection from=":J4_w0" to="-E3" fromLane="0" toLane="0" dir="s" state="M"/>
    <connection from="E3" to=":J4_w0" fromLane="0" toLane="0" dir="s" state="M"/>
</net>
